*SPEF "1481-1998"
*DESIGN "FPAdder_8_23_uid2_Wrapper"
*DATE "Mon Nov  6 14:37:08 2017"
*VENDOR "Synopsys, Inc."
*PROGRAM "icc_shell"
*VERSION "K-2015.06-SP1"
*DESIGN_FLOW "PIN_CAP NONE"
*DIVIDER /
*DELIMITER :
*BUS_DELIMITER [ ]
*T_UNIT 1 NS
*C_UNIT 1 FF
*R_UNIT 1 OHM
*L_UNIT 1 HENRY

*NAME_MAP
*1 X[7]
*2 X[6]
*3 X[5]
*4 X[4]
*5 X[3]
*6 X[2]
*7 X[1]
*8 X[0]
*9 X[15]
*10 X[14]
*11 X[13]
*12 X[12]
*13 X[11]
*14 X[10]
*15 X[9]
*16 X[8]
*17 X[23]
*18 X[22]
*19 X[21]
*20 X[20]
*21 X[19]
*22 X[18]
*23 X[17]
*24 X[16]
*25 X[31]
*26 X[30]
*27 X[29]
*28 X[28]
*29 X[27]
*30 X[26]
*31 X[25]
*32 X[24]
*33 Y[5]
*34 Y[4]
*35 Y[3]
*36 Y[2]
*37 Y[1]
*38 Y[0]
*39 X[33]
*40 X[32]
*41 Y[13]
*42 Y[12]
*43 Y[11]
*44 Y[10]
*45 Y[9]
*46 Y[8]
*47 Y[7]
*48 Y[6]
*49 Y[21]
*50 Y[20]
*51 Y[19]
*52 Y[18]
*53 Y[17]
*54 Y[16]
*55 Y[15]
*56 Y[14]
*57 Y[29]
*58 Y[28]
*59 Y[27]
*60 Y[26]
*61 Y[25]
*62 Y[24]
*63 Y[23]
*64 Y[22]
*65 R[3]
*66 R[2]
*67 R[1]
*68 R[0]
*69 Y[33]
*70 Y[32]
*71 Y[31]
*72 Y[30]
*73 R[11]
*74 R[10]
*75 R[9]
*76 R[8]
*77 R[7]
*78 R[6]
*79 R[5]
*80 R[4]
*81 R[19]
*82 R[18]
*83 R[17]
*84 R[16]
*85 R[15]
*86 R[14]
*87 R[13]
*88 R[12]
*89 R[27]
*90 R[26]
*91 R[25]
*92 R[24]
*93 R[23]
*94 R[22]
*95 R[21]
*96 R[20]
*97 rst
*98 clk
*99 R[33]
*100 R[32]
*101 R[31]
*102 R[30]
*103 R[29]
*104 R[28]
*105 n1360
*106 U1728
*107 U789
*108 U1524
*109 n1881
*110 U2377
*111 U1607
*112 U2039
*113 U2049
*114 n1899
*115 U1364
*116 U2074
*117 n1883
*118 U2061
*119 n2437
*120 U2359
*121 U2258
*122 U2022
*123 n1327
*124 U1462
*125 U1461
*126 U755
*127 n1613
*128 U2375
*129 U1713
*130 U1359
*131 n2438
*132 U1503
*133 U1801
*134 n1617
*135 U1361
*136 U1806
*137 n1200
*138 U1051
*139 U1093
*140 U868
*141 U63
*142 U7
*143 U930
*144 U75
*145 U79
*146 U111
*147 U1388
*148 U1129
*149 U917
*150 U942
*151 U959
*152 n1689
*153 U1642
*154 U1643
*155 U1835
*156 U1820
*157 U1873
*158 U1772
*159 U20
*160 U1585
*161 U1791
*162 U1862
*163 n1363
*164 U2371
*165 U1786
*166 U1162
*167 n2365
*168 U1750
*169 U1526
*170 U161
*171 i_X_d1\[11\]
*172 U2250
*173 i_X_d1_reg_11_
*174 U651
*175 U1251
*176 U641
*177 n479
*178 U2369
*179 U624
*180 U1182
*181 U525
*182 n1726
*183 U2368
*184 U1657
*185 U1629
*186 n2323
*187 U2265
*188 U1563
*189 U729
*190 U1911
*191 n1214
*192 U1231
*193 U10
*194 U153
*195 U2036
*196 U1368
*197 U1406
*198 U1199
*199 U1377
*200 U1122
*201 U1071
*202 U1107
*203 U1221
*204 U2367
*205 U2255
*206 U2035
*207 U1969
*208 U1250
*209 U1342
*210 n1035
*211 U1210
*212 U1212
*213 U117
*214 n1042
*215 U1868
*216 U1216
*217 n1036
*218 U1213
*219 n2345
*220 U2366
*221 U2310
*222 U1513
*223 n1501
*224 U1678
*225 n2307
*226 U2139
*227 n1756
*228 U2365
*229 U607
*230 U605
*231 n2276
*232 U1939
*233 n2008
*234 U1313
*235 U1826
*236 U1239
*237 U2153
*238 n2123
*239 U1501
*240 U2066
*241 U2048
*242 n1522
*243 U2362
*244 U628
*245 U1701
*246 n1503
*247 U1680
*248 n554
*249 U478
*250 U479
*251 U1152
*252 n2017
*253 U1821
*254 U2028
*255 U186
*256 U1204
*257 U2158
*258 n2455
*259 U1133
*260 U45
*261 n667
*262 U2196
*263 U743
*264 U762
*265 n1949
*266 U2357
*267 U2110
*268 U2267
*269 U2072
*270 U2136
*271 n1950
*272 U2109
*273 n1952
*274 U2339
*275 o_R\[33\]
*276 o_R_d1_reg_33_
*277 n1951
*278 U1201
*279 U542
*280 n1434
*281 U2356
*282 U1667
*283 U1665
*284 U1664
*285 U1584
*286 U1589
*287 n2361
*288 U1677
*289 n2422
*290 U169
*291 n2264
*292 U2355
*293 U2282
*294 n1932
*295 U2285
*296 U2057
*297 U188
*298 n1935
*299 U1237
*300 U544
*301 U2084
*302 n1947
*303 n1944
*304 U1280
*305 U2107
*306 U190
*307 n1399
*308 U2354
*309 U1785
*310 U1783
*311 U1116
*312 U1168
*313 U1559
*314 n1362
*315 U1163
*316 U1525
*317 U1511
*318 n1403
*319 U2256
*320 U1796
*321 U166
*322 n2231
*323 U2353
*324 U637
*325 n1518
*326 U1697
*327 n1218
*328 U2352
*329 U1384
*330 U1383
*331 n2368
*332 U1751
*333 n1217
*334 U1799
*335 U1730
*336 U1335
*337 n1077
*338 U2351
*339 U1847
*340 U1264
*341 n1078
*342 U1265
*343 U1226
*344 n1076
*345 U1224
*346 n1636
*347 U1413
*348 U184
*349 U192
*350 n1982
*351 U1685
*352 U2134
*353 U1686
*354 n2120
*355 U2349
*356 U995
*357 n1215
*358 n1212
*359 U1404
*360 n1213
*361 U2348
*362 n2289
*363 U2086
*364 U1153
*365 n588
*366 U2347
*367 U2213
*368 n587
*369 U750
*370 U2243
*371 n376
*372 U2346
*373 U482
*374 n410
*375 U2236
*376 n2281
*377 U2242
*378 n1096
*379 U1369
*380 U1398
*381 U1220
*382 U1022
*383 U1431
*384 U1
*385 U85
*386 U1322
*387 U1200
*388 U1389
*389 U1387
*390 U1393
*391 U1066
*392 U1067
*393 U1875
*394 U1230
*395 U1248
*396 U1341
*397 U1184
*398 U2345
*399 U2317
*400 U2253
*401 U1901
*402 n2362
*403 U2009
*404 n1057
*405 U991
*406 U1240
*407 U107
*408 n1424
*409 U2344
*410 U2312
*411 U1580
*412 n927
*413 U813
*414 U163
*415 n1415
*416 U1096
*417 U1570
*418 n1778
*419 U1709
*420 U1654
*421 U1746
*422 U1653
*423 U1959
*424 U26
*425 U2343
*426 U1597
*427 U1577
*428 U1576
*429 U1564
*430 n1542
*431 U2283
*432 U28
*433 n2383
*434 U1435
*435 n1472
*436 n2444
*437 U2342
*438 n2443
*439 U2268
*440 o_R\[13\]
*441 o_R_d1_reg_13_
*442 n959
*443 U2341
*444 U1950
*445 U128
*446 U53
*447 n958
*448 U1934
*449 U129
*450 n2417
*451 U973
*452 n1946
*453 n1136
*454 U1744
*455 U1741
*456 U1734
*457 U803
*458 U1307
*459 U122
*460 n2146
*461 U2321
*462 U121
*463 n2194
*464 U1338
*465 U120
*466 n2268
*467 U2337
*468 n2203
*469 U1765
*470 U805
*471 n1133
*472 U1749
*473 U1306
*474 n2170
*475 U1782
*476 n1441
*477 U2336
*478 U1689
*479 U1598
*480 n1440
*481 U1690
*482 U1554
*483 U1610
*484 U1941
*485 U1540
*486 n2153
*487 U1681
*488 n1541
*489 U2335
*490 U2290
*491 U1621
*492 U1723
*493 n2134
*494 U1640
*495 n2424
*496 U610
*497 n2298
*498 U1509
*499 U34
*500 U130
*501 U1693
*502 U1849
*503 U1704
*504 U763
*505 U753
*506 U1522
*507 U1652
*508 U2279
*509 n1284
*510 U2333
*511 U1465
*512 U1464
*513 U1411
*514 U1410
*515 n1313
*516 U1745
*517 U1458
*518 U1485
*519 U1469
*520 U1444
*521 n1250
*522 U1733
*523 n2118
*524 U1788
*525 n2266
*526 U2332
*527 U2296
*528 n2314
*529 U2311
*530 U1489
*531 U671
*532 n2267
*533 U1620
*534 n1454
*535 U2331
*536 U1592
*537 U1838
*538 U1625
*539 n2388
*540 U1995
*541 U1836
*542 U1594
*543 U1850
*544 n611
*545 U2330
*546 U2200
*547 U776
*548 U602
*549 n610
*550 U2204
*551 n2331
*552 U777
*553 n2317
*554 U2328
*555 U2202
*556 n832
*557 U898
*558 U965
*559 U1007
*560 U95
*561 n2115
*562 U2326
*563 U1754
*564 n2114
*565 U1732
*566 n1348
*567 U1515
*568 n1140
*569 U2325
*570 U148
*571 n1210
*572 U1376
*573 U1325
*574 U8
*575 U1886
*576 U1367
*577 U1222
*578 U1282
*579 U1340
*580 U1085
*581 U1249
*582 U1068
*583 U1232
*584 U1327
*585 n1153
*586 U1332
*587 U1319
*588 n1977
*589 U2324
*590 U2306
*591 U1988
*592 n2060
*593 U1311
*594 U534
*595 U2127
*596 n1979
*597 U538
*598 n1646
*599 U1587
*600 U35
*601 U2305
*602 U29
*603 U2300
*604 U1917
*605 U1892
*606 U2081
*607 n831
*608 U2322
*609 U2129
*610 U989
*611 n2199
*612 U1035
*613 U818
*614 U985
*615 U946
*616 U884
*617 n2294
*618 U1761
*619 U1760
*620 U1752
*621 n1001
*622 n2182
*623 U1773
*624 n387
*625 U2319
*626 U1173
*627 U24
*628 n2316
*629 U2224
*630 U587
*631 U551
*632 U588
*633 n907
*634 U2318
*635 U2316
*636 U2087
*637 U1076
*638 U1052
*639 n2130
*640 U830
*641 n976
*642 n2291
*643 U2288
*644 n2381
*645 U2032
*646 n839
*647 U928
*648 U886
*649 U968
*650 U847
*651 U840
*652 U945
*653 U1011
*654 U935
*655 U893
*656 U2315
*657 U2120
*658 U2119
*659 U1060
*660 U807
*661 U861
*662 U947
*663 U914
*664 n820
*665 U964
*666 U999
*667 U883
*668 U78
*669 n815
*670 U996
*671 n2429
*672 U1105
*673 n819
*674 U1127
*675 U963
*676 U902
*677 n1022
*678 U2252
*679 U1869
*680 U113
*681 n702
*682 U2297
*683 U110
*684 U829
*685 U2068
*686 U1019
*687 U196
*688 n2370
*689 U1809
*690 n2369
*691 U1138
*692 n2374
*693 U621
*694 n1990
*695 n765
*696 U2287
*697 U1053
*698 U854
*699 U91
*700 n2189
*701 U2100
*702 U92
*703 n771
*704 U801
*705 U948
*706 U90
*707 n818
*708 U967
*709 U998
*710 U52
*711 n790
*712 U971
*713 U51
*714 n2150
*715 U521
*716 U2008
*717 n1574
*718 U1491
*719 U1646
*720 U27
*721 n1597
*722 U636
*723 U1762
*724 n1573
*725 U1758
*726 n2322
*727 U2304
*728 U1586
*729 n1703
*730 U1811
*731 U1889
*732 n2318
*733 U630
*734 n862
*735 U2303
*736 U2034
*737 n1427
*738 U2302
*739 U1706
*740 U1569
*741 U1582
*742 n2179
*743 U741
*744 n1504
*745 U1572
*746 U1648
*747 n2034
*748 U1740
*749 U19
*750 U1817
*751 U2171
*752 n1722
*753 U1907
*754 n1713
*755 U1437
*756 U1863
*757 i_X_d1\[27\]
*758 i_X_d1_reg_27_
*759 U612
*760 U614
*761 n2271
*762 U1120
*763 U1057
*764 U1044
*765 U957
*766 U2289
*767 U2053
*768 U1036
*769 U1027
*770 U1042
*771 U952
*772 U869
*773 n701
*774 U827
*775 n1529
*776 U1710
*777 n637
*778 U2295
*779 U2231
*780 U2205
*781 U785
*782 U590
*783 n638
*784 U2203
*785 U774
*786 n2138
*787 U811
*788 n2434
*789 U2294
*790 U1445
*791 n2001
*792 U1353
*793 U2148
*794 U2149
*795 U182
*796 n2432
*797 U1449
*798 n1471
*799 U2292
*800 U1619
*801 U730
*802 n2330
*803 U1633
*804 U18
*805 i_X_d1\[32\]
*806 U518
*807 i_X_d1_reg_32_
*808 U2075
*809 n1556
*810 U175
*811 n879
*812 U1009
*813 U1028
*814 U1015
*815 U70
*816 n880
*817 U1050
*818 n2155
*819 n980
*820 U1157
*821 U1150
*822 n690
*823 U852
*824 n2236
*825 U835
*826 U832
*827 U865
*828 U860
*829 U839
*830 U838
*831 U201
*832 U2206
*833 U2199
*834 U1126
*835 U800
*836 U816
*837 U900
*838 n689
*839 U573
*840 U572
*841 n797
*842 U904
*843 U757
*844 U879
*845 U2201
*846 U977
*847 U194
*848 U202
*849 U77
*850 U150
*851 n810
*852 U2286
*853 n885
*854 U992
*855 n809
*856 U990
*857 n1882
*858 U566
*859 n1879
*860 U2054
*861 n1938
*862 U2063
*863 n1789
*864 U2284
*865 U1968
*866 n1837
*867 U1616
*868 U1970
*869 U1990
*870 n1790
*871 U1967
*872 n2403
*873 U1466
*874 n1933
*875 U2067
*876 n2141
*877 U2281
*878 U1631
*879 U1952
*880 n1782
*881 U1961
*882 n1551
*883 U1474
*884 U178
*885 n2188
*886 U2261
*887 n1580
*888 U2278
*889 U1719
*890 U1703
*891 U171
*892 U139
*893 n2178
*894 U1724
*895 n2327
*896 U1707
*897 n1016
*898 U2277
*899 U1189
*900 U1187
*901 n1018
*902 U1186
*903 n1067
*904 U1257
*905 U1191
*906 n1967
*907 U2270
*908 U568
*909 U1933
*910 U2116
*911 n2244
*912 U505
*913 n2056
*914 U2269
*915 U1918
*916 n2139
*917 U472
*918 n2019
*919 U124
*920 n1905
*921 U464
*922 U2078
*923 U465
*924 U486
*925 n1983
*926 U2135
*927 n2097
*928 U2083
*929 n2085
*930 U2266
*931 U1583
*932 U1072
*933 U1879
*934 n1754
*935 U1938
*936 U1908
*937 U1890
*938 n1721
*939 U1906
*940 U1887
*941 n2175
*942 U185
*943 n2161
*944 U2264
*945 n2162
*946 n2160
*947 n1625
*948 U2263
*949 U1779
*950 U1814
*951 n2288
*952 n2095
*953 U1403
*954 n1767
*955 U2262
*956 U1151
*957 n2462
*958 n2340
*959 U1634
*960 n2187
*961 n1880
*962 U1149
*963 U560
*964 U562
*965 n1488
*966 U2257
*967 U1787
*968 U849
*969 U842
*970 U824
*971 n1487
*972 U1079
*973 n2093
*974 U170
*975 n1398
*976 U1558
*977 n1098
*978 U2254
*979 U922
*980 n1100
*981 U1283
*982 n1049
*983 U870
*984 n2371
*985 U974
*986 n2091
*987 U1834
*988 n1025
*989 U1196
*990 n2279
*991 U1857
*992 n882
*993 n469
*994 U511
*995 U508
*996 U2222
*997 n494
*998 U643
*999 i_Y_d1\[11\]
*1000 i_Y_d1_reg_11_
*1001 U650
*1002 i_Y_d1\[26\]
*1003 U527
*1004 U537
*1005 i_Y_d1_reg_26_
*1006 U1942
*1007 U2245
*1008 U626
*1009 i_X_d1\[19\]
*1010 U674
*1011 U1407
*1012 i_X_d1_reg_19_
*1013 U487
*1014 i_Y_d1\[32\]
*1015 U2246
*1016 i_Y_d1_reg_32_
*1017 n2479
*1018 n2222
*1019 U2215
*1020 n462
*1021 U2244
*1022 U474
*1023 U475
*1024 n2375
*1025 U599
*1026 U601
*1027 n404
*1028 U2241
*1029 U2240
*1030 n407
*1031 U533
*1032 U532
*1033 n403
*1034 U1181
*1035 n409
*1036 U2237
*1037 n405
*1038 U504
*1039 n571
*1040 U734
*1041 U481
*1042 n2111
*1043 n516
*1044 U2239
*1045 U489
*1046 U488
*1047 n513
*1048 U494
*1049 U493
*1050 n514
*1051 U491
*1052 n515
*1053 U670
*1054 n520
*1055 U675
*1056 n456
*1057 U594
*1058 U549
*1059 n412
*1060 n411
*1061 n511
*1062 U2235
*1063 U2234
*1064 U2233
*1065 U668
*1066 U550
*1067 n2110
*1068 n484
*1069 U2230
*1070 U2229
*1071 U1171
*1072 U629
*1073 U617
*1074 n459
*1075 U595
*1076 n600
*1077 U1170
*1078 n445
*1079 U1172
*1080 U589
*1081 U466
*1082 U514
*1083 U584
*1084 n552
*1085 U2232
*1086 U2228
*1087 n2372
*1088 U713
*1089 n450
*1090 U502
*1091 U501
*1092 U571
*1093 U198
*1094 n452
*1095 U592
*1096 n449
*1097 n467
*1098 U613
*1099 n470
*1100 U1155
*1101 n551
*1102 U712
*1103 n601
*1104 U1160
*1105 n2464
*1106 U102
*1107 U104
*1108 U2223
*1109 n488
*1110 U2227
*1111 U553
*1112 U554
*1113 n2379
*1114 U2218
*1115 U1164
*1116 n487
*1117 n2461
*1118 n428
*1119 U2219
*1120 U569
*1121 i_Y_d1\[23\]
*1122 U2212
*1123 U1920
*1124 i_Y_d1_reg_23_
*1125 U767
*1126 U33
*1127 n2420
*1128 U1144
*1129 n608
*1130 U769
*1131 n2282
*1132 U1161
*1133 n474
*1134 U618
*1135 n2157
*1136 U2220
*1137 U2211
*1138 n553
*1139 U1147
*1140 U524
*1141 U526
*1142 n448
*1143 U567
*1144 n2133
*1145 U1140
*1146 n2378
*1147 n1867
*1148 U638
*1149 U94
*1150 n603
*1151 U2216
*1152 U771
*1153 U768
*1154 n605
*1155 n2474
*1156 n485
*1157 n2223
*1158 n594
*1159 U631
*1160 U43
*1161 n573
*1162 U2214
*1163 U724
*1164 U725
*1165 n2326
*1166 U1136
*1167 n2142
*1168 U2207
*1169 n607
*1170 n555
*1171 U1146
*1172 n2351
*1173 U2192
*1174 U2191
*1175 U2190
*1176 n987
*1177 U2210
*1178 U1818
*1179 U1125
*1180 n2252
*1181 n995
*1182 U1816
*1183 U1139
*1184 U88
*1185 n430
*1186 U2208
*1187 n2359
*1188 n429
*1189 n688
*1190 U850
*1191 U754
*1192 n590
*1193 U749
*1194 n653
*1195 U2189
*1196 U796
*1197 n454
*1198 n2419
*1199 n636
*1200 U793
*1201 U783
*1202 n726
*1203 U896
*1204 n728
*1205 U696
*1206 U709
*1207 U697
*1208 n796
*1209 U76
*1210 U149
*1211 U1124
*1212 U976
*1213 i_Y_d1\[1\]
*1214 U689
*1215 i_Y_d1_reg_1_
*1216 U112
*1217 n708
*1218 U877
*1219 n612
*1220 U604
*1221 n592
*1222 U492
*1223 U672
*1224 n769
*1225 U927
*1226 U808
*1227 U913
*1228 n591
*1229 U758
*1230 n627
*1231 U2198
*1232 U2187
*1233 U2184
*1234 U2182
*1235 U726
*1236 n630
*1237 U787
*1238 n628
*1239 U2197
*1240 U1131
*1241 n575
*1242 U732
*1243 n577
*1244 U2185
*1245 U1097
*1246 U1090
*1247 n613
*1248 U1132
*1249 n633
*1250 U2195
*1251 U1135
*1252 U790
*1253 n632
*1254 U1106
*1255 U633
*1256 n2099
*1257 U2130
*1258 U826
*1259 n2275
*1260 U2194
*1261 n2358
*1262 n476
*1263 n647
*1264 U2193
*1265 U1102
*1266 U1088
*1267 n2411
*1268 n2347
*1269 n2353
*1270 n576
*1271 n2412
*1272 n650
*1273 n2458
*1274 n570
*1275 U561
*1276 n2242
*1277 U2179
*1278 n640
*1279 U797
*1280 n624
*1281 U2178
*1282 U2160
*1283 U727
*1284 n2247
*1285 U2161
*1286 U2133
*1287 n2463
*1288 U2123
*1289 n625
*1290 n626
*1291 n684
*1292 U1064
*1293 n2427
*1294 U792
*1295 n2385
*1296 U195
*1297 n2299
*1298 U2132
*1299 U809
*1300 n676
*1301 U3
*1302 n685
*1303 U1101
*1304 U791
*1305 n2354
*1306 U866
*1307 U949
*1308 U57
*1309 n671
*1310 U738
*1311 n566
*1312 U728
*1313 n584
*1314 U746
*1315 n721
*1316 U2122
*1317 U1061
*1318 U812
*1319 n2224
*1320 n673
*1321 U2128
*1322 U2124
*1323 n2208
*1324 U828
*1325 n672
*1326 n2363
*1327 U843
*1328 n2261
*1329 U864
*1330 n656
*1331 n2476
*1332 U981
*1333 U1006
*1334 n830
*1335 U969
*1336 n748
*1337 U926
*1338 n756
*1339 U910
*1340 n757
*1341 U933
*1342 n755
*1343 U909
*1344 U892
*1345 U203
*1346 n743
*1347 U2117
*1348 U1049
*1349 n2342
*1350 U2077
*1351 n687
*1352 U878
*1353 U9
*1354 U2099
*1355 U60
*1356 n759
*1357 n970
*1358 U1013
*1359 U937
*1360 U1091
*1361 n691
*1362 U61
*1363 n710
*1364 U855
*1365 n2243
*1366 U857
*1367 U1073
*1368 U73
*1369 n768
*1370 U851
*1371 n660
*1372 n661
*1373 n969
*1374 U2059
*1375 U845
*1376 n741
*1377 U915
*1378 n2341
*1379 U2065
*1380 n921
*1381 U929
*1382 U56
*1383 n893
*1384 U1045
*1385 U895
*1386 U962
*1387 U1055
*1388 U2058
*1389 U2055
*1390 U11
*1391 U71
*1392 n2239
*1393 n742
*1394 n913
*1395 n971
*1396 n892
*1397 U894
*1398 n920
*1399 U1092
*1400 U13
*1401 U64
*1402 U1038
*1403 U1005
*1404 U921
*1405 U956
*1406 U1041
*1407 n1008
*1408 U1183
*1409 U1059
*1410 n948
*1411 U955
*1412 U950
*1413 n2431
*1414 n777
*1415 n884
*1416 U59
*1417 n889
*1418 U1056
*1419 n864
*1420 U2052
*1421 U1039
*1422 n2164
*1423 U84
*1424 n1205
*1425 U2051
*1426 U975
*1427 U920
*1428 n962
*1429 U2040
*1430 U1137
*1431 n1061
*1432 U2041
*1433 U943
*1434 U1247
*1435 n1032
*1436 U1209
*1437 U938
*1438 n2376
*1439 n957
*1440 n1161
*1441 U953
*1442 U1339
*1443 n2303
*1444 n961
*1445 n968
*1446 U1951
*1447 U1040
*1448 n2308
*1449 U65
*1450 n1186
*1451 U1108
*1452 n865
*1453 U2030
*1454 U72
*1455 n866
*1456 n2152
*1457 n919
*1458 U2017
*1459 U2007
*1460 U101
*1461 n2277
*1462 U99
*1463 n1059
*1464 U1241
*1465 n1004
*1466 U1180
*1467 n2228
*1468 n960
*1469 n1138
*1470 U1077
*1471 U1078
*1472 n2460
*1473 n1226
*1474 U1955
*1475 U1417
*1476 n1225
*1477 U1378
*1478 n2092
*1479 U1479
*1480 U1476
*1481 U1381
*1482 U1453
*1483 n978
*1484 U1156
*1485 n2235
*1486 U1900
*1487 n2245
*1488 n979
*1489 U1154
*1490 n2230
*1491 U1803
*1492 n963
*1493 U932
*1494 n2206
*1495 U87
*1496 n1480
*1497 U1891
*1498 U1846
*1499 U1661
*1500 n847
*1501 n846
*1502 U1004
*1503 U1003
*1504 n1005
*1505 U1888
*1506 n1013
*1507 U1824
*1508 n937
*1509 U1109
*1510 n2311
*1511 U951
*1512 n946
*1513 U1081
*1514 U1119
*1515 U100
*1516 n924
*1517 n1156
*1518 U1884
*1519 U1330
*1520 U1329
*1521 n1157
*1522 U55
*1523 n1220
*1524 U897
*1525 U1337
*1526 U1351
*1527 n1155
*1528 U1848
*1529 U1315
*1530 n895
*1531 U925
*1532 n1041
*1533 U1215
*1534 n1043
*1535 U44
*1536 n2269
*1537 U1218
*1538 n2428
*1539 U1804
*1540 n1087
*1541 U1853
*1542 U156
*1543 n1088
*1544 n1127
*1545 U1275
*1546 U1308
*1547 U1293
*1548 n1154
*1549 U1314
*1550 n1177
*1551 U1358
*1552 n1047
*1553 n1046
*1554 n1481
*1555 n2395
*1556 U876
*1557 n1477
*1558 U1810
*1559 U1660
*1560 n1011
*1561 U1185
*1562 n1012
*1563 n2106
*1564 U1190
*1565 n988
*1566 U918
*1567 U888
*1568 n1397
*1569 U846
*1570 n1353
*1571 U1519
*1572 n2254
*1573 U1815
*1574 n1352
*1575 U819
*1576 U1518
*1577 n1084
*1578 U1812
*1579 U923
*1580 U1235
*1581 n1115
*1582 U1271
*1583 U1298
*1584 U160
*1585 n1083
*1586 U1234
*1587 n2452
*1588 n926
*1589 U1086
*1590 U1098
*1591 n1069
*1592 U1259
*1593 U1207
*1594 U1256
*1595 n994
*1596 U853
*1597 U1169
*1598 n983
*1599 U1158
*1600 n1176
*1601 U1320
*1602 U1357
*1603 n1181
*1604 U1360
*1605 U1355
*1606 n1054
*1607 U1236
*1608 n1118
*1609 U1743
*1610 U1269
*1611 U1268
*1612 U1301
*1613 n2253
*1614 n1222
*1615 U1789
*1616 U1415
*1617 n1299
*1618 U1422
*1619 U1478
*1620 U1451
*1621 n2167
*1622 n1248
*1623 U1433
*1624 n2119
*1625 U863
*1626 n2471
*1627 U1579
*1628 n2336
*1629 n985
*1630 U1142
*1631 n991
*1632 U1167
*1633 n2321
*1634 n1085
*1635 U1784
*1636 n2407
*1637 U1273
*1638 U1291
*1639 n1086
*1640 n1114
*1641 U1245
*1642 n2165
*1643 U1768
*1644 n1129
*1645 U1309
*1646 n1130
*1647 U1305
*1648 n2346
*1649 U1780
*1650 U814
*1651 U89
*1652 n2211
*1653 n2483
*1654 n2250
*1655 n1423
*1656 n2149
*1657 n999
*1658 n1000
*1659 n1079
*1660 U1759
*1661 U1266
*1662 U164
*1663 n1080
*1664 U1228
*1665 U1227
*1666 n2439
*1667 n2204
*1668 n2399
*1669 n1137
*1670 U1175
*1671 n2367
*1672 n1349
*1673 U1514
*1674 n2113
*1675 n2260
*1676 n1132
*1677 n1232
*1678 n2156
*1679 n2158
*1680 U1481
*1681 U1452
*1682 n2122
*1683 U795
*1684 n1110
*1685 U1243
*1686 U1295
*1687 U1244
*1688 n1134
*1689 U1742
*1690 n1121
*1691 U1302
*1692 n1388
*1693 U1548
*1694 U1498
*1695 U1192
*1696 U1292
*1697 U1278
*1698 U1543
*1699 n1125
*1700 U1229
*1701 n1316
*1702 U802
*1703 U1459
*1704 n2467
*1705 U798
*1706 U2
*1707 n1251
*1708 n2442
*1709 U1727
*1710 n1356
*1711 U145
*1712 U142
*1713 n1259
*1714 U1731
*1715 n2453
*1716 U1729
*1717 n2293
*1718 U1356
*1719 n1260
*1720 U1441
*1721 n1196
*1722 U1321
*1723 n2430
*1724 U1725
*1725 n1264
*1726 U1447
*1727 n1339
*1728 U1712
*1729 n2229
*1730 n1320
*1731 U1488
*1732 n1421
*1733 U1578
*1734 n2413
*1735 U1726
*1736 n1287
*1737 U1432
*1738 n1417
*1739 U794
*1740 U1575
*1741 n1172
*1742 n1374
*1743 U1720
*1744 U1538
*1745 U1839
*1746 n1455
*1747 U788
*1748 U1303
*1749 U1299
*1750 U1748
*1751 n1660
*1752 U1737
*1753 n1589
*1754 U1774
*1755 U1289
*1756 n1579
*1757 U1294
*1758 n1373
*1759 U1348
*1760 U1536
*1761 U1851
*1762 n1412
*1763 U784
*1764 U1568
*1765 U168
*1766 n1554
*1767 U806
*1768 U1645
*1769 n1563
*1770 U1560
*1771 U133
*1772 n1590
*1773 U786
*1774 U144
*1775 n1407
*1776 U766
*1777 n1184
*1778 U772
*1779 n1282
*1780 U1463
*1781 n2209
*1782 U1711
*1783 n1367
*1784 U765
*1785 U759
*1786 n2262
*1787 U770
*1788 U2080
*1789 n1357
*1790 n1369
*1791 n2384
*1792 U1688
*1793 n1370
*1794 U1531
*1795 n1757
*1796 U1553
*1797 U1702
*1798 U752
*1799 U751
*1800 U742
*1801 U1492
*1802 n2421
*1803 n1758
*1804 U1566
*1805 U1837
*1806 n2193
*1807 n1445
*1808 U740
*1809 n1419
*1810 n2377
*1811 n1329
*1812 U174
*1813 n2290
*1814 n1428
*1815 U1682
*1816 n1430
*1817 n2196
*1818 n1443
*1819 U1600
*1820 n1465
*1821 U735
*1822 U1602
*1823 n1658
*1824 U1679
*1825 U1532
*1826 U1622
*1827 n2238
*1828 n1395
*1829 U1555
*1830 n1396
*1831 U1539
*1832 n1667
*1833 U1676
*1834 U1852
*1835 U1611
*1836 U1613
*1837 n1619
*1838 U1650
*1839 U16
*1840 n2364
*1841 n1448
*1842 U1612
*1843 n1444
*1844 U739
*1845 n2302
*1846 U1656
*1847 n2416
*1848 U1666
*1849 U1632
*1850 n2450
*1851 U1635
*1852 U1914
*1853 n2215
*1854 n2100
*1855 U736
*1856 U1588
*1857 n1461
*1858 n1432
*1859 n2400
*1860 U1659
*1861 n1564
*1862 U1658
*1863 U1738
*1864 n2338
*1865 U1596
*1866 n1701
*1867 U1523
*1868 U1912
*1869 U1894
*1870 n2459
*1871 U1641
*1872 n2418
*1873 U1638
*1874 U1692
*1875 n1755
*1876 n1468
*1877 U1534
*1878 U1506
*1879 n1462
*1880 n1467
*1881 U1636
*1882 n1681
*1883 U1639
*1884 n2241
*1885 U1854
*1886 n2107
*1887 n1687
*1888 U1770
*1889 U1416
*1890 U1819
*1891 U1844
*1892 U1494
*1893 U1776
*1894 n1523
*1895 n1543
*1896 U1705
*1897 n1651
*1898 U1840
*1899 n1497
*1900 U1630
*1901 U1581
*1902 n2265
*1903 U1603
*1904 U17
*1905 n2232
*1906 n1596
*1907 U1618
*1908 n1560
*1909 n1840
*1910 U1601
*1911 U2019
*1912 n1591
*1913 U22
*1914 U1767
*1915 U1521
*1916 U1590
*1917 U1763
*1918 U1842
*1919 U1467
*1920 U1516
*1921 U634
*1922 U642
*1923 U177
*1924 U183
*1925 U1905
*1926 U1747
*1927 U1978
*1928 U1923
*1929 U1874
*1930 U1795
*1931 U1855
*1932 U714
*1933 U1896
*1934 U1895
*1935 U23
*1936 n1747
*1937 U1608
*1938 U1929
*1939 U126
*1940 U1434
*1941 U25
*1942 U180
*1943 U1694
*1944 n1792
*1945 U1562
*1946 U1975
*1947 n2096
*1948 U2043
*1949 n1838
*1950 U1940
*1951 U1945
*1952 n1865
*1953 U2020
*1954 U2044
*1955 n2337
*1956 U1517
*1957 n2214
*1958 U737
*1959 n2213
*1960 n2350
*1961 U1495
*1962 n1507
*1963 U1684
*1964 n1493
*1965 U1663
*1966 U14
*1967 n1549
*1968 n2435
*1969 n1688
*1970 n2405
*1971 n2237
*1972 n2124
*1973 n2389
*1974 U1528
*1975 U1448
*1976 n2328
*1977 n1679
*1978 U1866
*1979 U1858
*1980 n1631
*1981 n1672
*1982 U620
*1983 U1859
*1984 n1581
*1985 U1766
*1986 n1685
*1987 U1807
*1988 n2036
*1989 U1876
*1990 n1593
*1991 U1502
*1992 U1777
*1993 n1608
*1994 n1609
*1995 U1797
*1996 n1876
*1997 U1486
*1998 n1897
*1999 U585
*2000 U2073
*2001 U2021
*2002 n1550
*2003 U1496
*2004 n2295
*2005 n2258
*2006 U1423
*2007 n1645
*2008 U1771
*2009 U1833
*2010 n2225
*2011 n1736
*2012 U1915
*2013 n1561
*2014 U1436
*2015 n1555
*2016 n2174
*2017 n2313
*2018 n2117
*2019 U593
*2020 n1626
*2021 n2285
*2022 U598
*2023 n2402
*2024 U600
*2025 n1696
*2026 U1769
*2027 U1877
*2028 U1845
*2029 n1583
*2030 n1552
*2031 U1438
*2032 n2103
*2033 U1336
*2034 n2226
*2035 n2109
*2036 U179
*2037 n2394
*2038 U603
*2039 n1524
*2040 n2094
*2041 n2447
*2042 U1412
*2043 n1565
*2044 n1566
*2045 n1684
*2046 U1867
*2047 n2349
*2048 U597
*2049 n1962
*2050 U1405
*2051 U1954
*2052 n1961
*2053 U152
*2054 n2098
*2055 U2121
*2056 n2212
*2057 U1374
*2058 n1601
*2059 n1548
*2060 U1402
*2061 U1715
*2062 n2220
*2063 U591
*2064 n2183
*2065 U1380
*2066 n2387
*2067 n1539
*2068 U1379
*2069 U1695
*2070 n2408
*2071 U1296
*2072 U564
*2073 n1926
*2074 U1312
*2075 U559
*2076 U2092
*2077 n1510
*2078 U1366
*2079 U1687
*2080 U1696
*2081 n1515
*2082 n2356
*2083 U2141
*2084 U2142
*2085 n1655
*2086 U1365
*2087 n1656
*2088 n1657
*2089 n2021
*2090 U1352
*2091 U1935
*2092 U2093
*2093 U2163
*2094 n1972
*2095 U1985
*2096 U2126
*2097 U1984
*2098 n1587
*2099 U154
*2100 n1588
*2101 U176
*2102 n1586
*2103 n2012
*2104 U2090
*2105 U2155
*2106 n1537
*2107 U1362
*2108 U1718
*2109 n2409
*2110 n2406
*2111 U1333
*2112 n2000
*2113 U2147
*2114 U2146
*2115 n2039
*2116 U2172
*2117 U1856
*2118 n1776
*2119 U1957
*2120 U1865
*2121 n1476
*2122 n2004
*2123 U2151
*2124 U159
*2125 n2348
*2126 U30
*2127 n2028
*2128 U1949
*2129 U1881
*2130 U42
*2131 U38
*2132 n1694
*2133 n1923
*2134 U545
*2135 U2088
*2136 U1757
*2137 n2286
*2138 U2031
*2139 n2137
*2140 U506
*2141 n1857
*2142 U1310
*2143 U2023
*2144 n1858
*2145 U2005
*2146 U189
*2147 n1859
*2148 n1852
*2149 n2393
*2150 U2144
*2151 U2143
*2152 n1966
*2153 U187
*2154 n1773
*2155 n1894
*2156 U723
*2157 U722
*2158 n2047
*2159 U1274
*2160 U2176
*2161 n2140
*2162 U558
*2163 U1883
*2164 n2046
*2165 U2177
*2166 n2398
*2167 U1214
*2168 n1942
*2169 U1270
*2170 U1830
*2171 U2106
*2172 U1829
*2173 n2390
*2174 U1831
*2175 n2010
*2176 U2154
*2177 U1735
*2178 n2357
*2179 n1917
*2180 U1238
*2181 n1918
*2182 U543
*2183 n1919
*2184 n2063
*2185 U1225
*2186 U2188
*2187 n1887
*2188 U2064
*2189 n2274
*2190 U1203
*2191 n2045
*2192 U1223
*2193 U2175
*2194 n2058
*2195 U1926
*2196 U2112
*2197 U2186
*2198 U2010
*2199 U2174
*2200 U2170
*2201 U83
*2202 U516
*2203 U2164
*2204 n2042
*2205 U2115
*2206 n2105
*2207 U517
*2208 n2052
*2209 U2181
*2210 n2018
*2211 U2159
*2212 U2157
*2213 n2272
*2214 n2053
*2215 U1202
*2216 U2183
*2217 n1956
*2218 n1965
*2219 o_R\[32\]
*2220 o_R_d1_reg_32_
*2221 i_X_d1\[30\]
*2222 U1198
*2223 U1197
*2224 U1188
*2225 U480
*2226 i_X_d1_reg_30_
*2227 n2325
*2228 n2233
*2229 i_Y_d1\[28\]
*2230 i_Y_d1_reg_28_
*2231 U477
*2232 i_Y_d1\[24\]
*2233 U1193
*2234 U1927
*2235 i_Y_d1_reg_24_
*2236 U510
*2237 n393
*2238 U509
*2239 n447
*2240 U1174
*2241 n561
*2242 U529
*2243 n2380
*2244 n389
*2245 U473
*2246 U528
*2247 i_Y_d1\[27\]
*2248 i_Y_d1_reg_27_
*2249 U623
*2250 i_Y_d1\[30\]
*2251 i_Y_d1_reg_30_
*2252 n396
*2253 U536
*2254 n399
*2255 U540
*2256 n395
*2257 n385
*2258 U520
*2259 n386
*2260 U519
*2261 n2147
*2262 n381
*2263 U513
*2264 n418
*2265 U1165
*2266 U557
*2267 n560
*2268 U721
*2269 n559
*2270 U515
*2271 n2184
*2272 n492
*2273 U523
*2274 n482
*2275 n463
*2276 U535
*2277 n2445
*2278 n460
*2279 n420
*2280 n2171
*2281 U1148
*2282 n2486
*2283 n2166
*2284 n925
*2285 U1087
*2286 n2324
*2287 n567
*2288 n619
*2289 U782
*2290 U780
*2291 U619
*2292 n616
*2293 U744
*2294 U779
*2295 n574
*2296 n719
*2297 U640
*2298 U645
*2299 n720
*2300 U887
*2301 n1015
*2302 U701
*2303 U700
*2304 n1014
*2305 U706
*2306 U705
*2307 n697
*2308 U862
*2309 i_X_d1\[1\]
*2310 U688
*2311 i_X_d1_reg_1_
*2312 U686
*2313 n709
*2314 n814
*2315 U1083
*2316 n654
*2317 n2128
*2318 n649
*2319 U1089
*2320 U804
*2321 n2185
*2322 U822
*2323 n631
*2324 n642
*2325 U1020
*2326 U4
*2327 n664
*2328 U1080
*2329 n2219
*2330 U889
*2331 n2457
*2332 n686
*2333 n1479
*2334 U109
*2335 n2154
*2336 n770
*2337 U817
*2338 n745
*2339 n2270
*2340 U1177
*2341 n1485
*2342 U80
*2343 U1063
*2344 U6
*2345 n2465
*2346 n767
*2347 n681
*2348 U204
*2349 n682
*2350 U1033
*2351 U841
*2352 U836
*2353 n2202
*2354 U1074
*2355 n843
*2356 U1025
*2357 U1012
*2358 n2297
*2359 n836
*2360 U1008
*2361 n887
*2362 n886
*2363 U997
*2364 n764
*2365 n947
*2366 U12
*2367 U907
*2368 U1046
*2369 n776
*2370 n806
*2371 U988
*2372 U885
*2373 U908
*2374 n736
*2375 n737
*2376 n781
*2377 U960
*2378 n2469
*2379 n916
*2380 n930
*2381 n1027
*2382 U123
*2383 n1028
*2384 n876
*2385 U934
*2386 U1048
*2387 n877
*2388 n2410
*2389 n1478
*2390 n1051
*2391 n1050
*2392 n953
*2393 n952
*2394 U1123
*2395 n1482
*2396 U1662
*2397 n2451
*2398 n1283
*2399 U1430
*2400 n897
*2401 n2217
*2402 n2392
*2403 n1364
*2404 n1286
*2405 n1285
*2406 n1315
*2407 U1484
*2408 n1314
*2409 n1113
*2410 n1117
*2411 n1343
*2412 U1473
*2413 U1508
*2414 n2485
*2415 U773
*2416 n1322
*2417 n1456
*2418 U1483
*2419 U131
*2420 n2355
*2421 n1324
*2422 n1414
*2423 n1375
*2424 n1411
*2425 n1408
*2426 U1556
*2427 n1616
*2428 U1805
*2429 n2415
*2430 n1325
*2431 n1612
*2432 U1500
*2433 U1617
*2434 U1800
*2435 n2454
*2436 n1341
*2437 U172
*2438 n2135
*2439 n1733
*2440 U1595
*2441 n1700
*2442 n1498
*2443 U1675
*2444 n1702
*2445 n1533
*2446 n1628
*2447 U615
*2448 U1813
*2449 n2283
*2450 n1536
*2451 U1717
*2452 n1526
*2453 n1546
*2454 n1629
*2455 n1692
*2456 n1874
*2457 n1610
*2458 n1848
*2459 U2027
*2460 U181
*2461 n1849
*2462 n1842
*2463 U2012
*2464 U1996
*2465 n2172
*2466 U191
*2467 n1843
*2468 U2016
*2469 n1968
*2470 U563
*2471 n1893
*2472 U2070
*2473 U2002
*2474 U1999
*2475 n1996
*2476 U1721
*2477 n1969
*2478 U1910
*2479 U1909
*2480 n2136
*2481 U546
*2482 n1853
*2483 n1725
*2484 U1882
*2485 n2030
*2486 U2168
*2487 n1571
*2488 U547
*2489 U1700
*2490 U1722
*2491 n1943
*2492 U2033
*2493 n1570
*2494 n2048
*2495 n2059
*2496 n2006
*2497 U2152
*2498 n1999
*2499 n1860
*2500 U1958
*2501 n1856
*2502 U2029
*2503 n1855
*2504 n1920
*2505 n2263
*2506 U530
*2507 n2200
*2508 n2067
*2509 o_R_d1_reg_28_
*2510 n2068
*2511 o_R_d1_reg_27_
*2512 n1711
*2513 U1899
*2514 o_R\[20\]
*2515 o_R_d1_reg_20_
*2516 n2054
*2517 n2440
*2518 n2061
*2519 n2069
*2520 o_R_d1_reg_26_
*2521 n1749
*2522 o_R\[24\]
*2523 o_R_d1_reg_24_
*2524 o_R\[22\]
*2525 o_R_d1_reg_22_
*2526 n2064
*2527 U471
*2528 o_R_d1_reg_4_
*2529 n2065
*2530 U467
*2531 i_X_d1_reg_31_
*2532 n1847
*2533 U2026
*2534 n2066
*2535 o_R_d1_reg_29_
*2536 n2022
*2537 o_R\[14\]
*2538 o_R_d1_reg_14_
*2539 n1751
*2540 U49
*2541 U46
*2542 n1642
*2543 n2015
*2544 n1945
*2545 U2105
*2546 n2025
*2547 U2165
*2548 U2095
*2549 n1936
*2550 U2102
*2551 n1851
*2552 U1987
*2553 n1924
*2554 U2089
*2555 U1828
*2556 n1826
*2557 n2002
*2558 U2150
*2559 n2003
*2560 n2005
*2561 n1929
*2562 U2094
*2563 n1638
*2564 U1827
*2565 n1639
*2566 n2013
*2567 U2156
*2568 n2014
*2569 n1742
*2570 U1919
*2571 n1741
*2572 n1766
*2573 n1765
*2574 U1948
*2575 n1891
*2576 n1994
*2577 n1992
*2578 U2140
*2579 U82
*2580 n1535
*2581 U1716
*2582 n1997
*2583 U2145
*2584 n1875
*2585 U2050
*2586 n1632
*2587 n1633
*2588 n1634
*2589 n1752
*2590 U1880
*2591 n2044
*2592 U1898
*2593 U1897
*2594 n1753
*2595 U1864
*2596 n1777
*2597 n1630
*2598 n1723
*2599 n1710
*2600 n1724
*2601 n1822
*2602 U2003
*2603 n2050
*2604 U2180
*2605 n1772
*2606 U1953
*2607 n1704