*SPEF "1481-1998"
*DESIGN "FPMultiplier_8_23_8_23_8_23_uid2_Wrapper"
*DATE "Mon Nov  6 15:13:45 2017"
*VENDOR "Synopsys, Inc."
*PROGRAM "icc_shell"
*VERSION "K-2015.06-SP1"
*DESIGN_FLOW "PIN_CAP NONE"
*DIVIDER /
*DELIMITER :
*BUS_DELIMITER [ ]
*T_UNIT 1 NS
*C_UNIT 1 FF
*R_UNIT 1 OHM
*L_UNIT 1 HENRY

*NAME_MAP
*1 X[7]
*2 X[6]
*3 X[5]
*4 X[4]
*5 X[3]
*6 X[2]
*7 X[1]
*8 X[0]
*9 X[15]
*10 X[14]
*11 X[13]
*12 X[12]
*13 X[11]
*14 X[10]
*15 X[9]
*16 X[8]
*17 X[23]
*18 X[22]
*19 X[21]
*20 X[20]
*21 X[19]
*22 X[18]
*23 X[17]
*24 X[16]
*25 X[31]
*26 X[30]
*27 X[29]
*28 X[28]
*29 X[27]
*30 X[26]
*31 X[25]
*32 X[24]
*33 Y[5]
*34 Y[4]
*35 Y[3]
*36 Y[2]
*37 Y[1]
*38 Y[0]
*39 X[33]
*40 X[32]
*41 Y[13]
*42 Y[12]
*43 Y[11]
*44 Y[10]
*45 Y[9]
*46 Y[8]
*47 Y[7]
*48 Y[6]
*49 Y[21]
*50 Y[20]
*51 Y[19]
*52 Y[18]
*53 Y[17]
*54 Y[16]
*55 Y[15]
*56 Y[14]
*57 Y[29]
*58 Y[28]
*59 Y[27]
*60 Y[26]
*61 Y[25]
*62 Y[24]
*63 Y[23]
*64 Y[22]
*65 R[3]
*66 R[2]
*67 R[1]
*68 R[0]
*69 Y[33]
*70 Y[32]
*71 Y[31]
*72 Y[30]
*73 R[11]
*74 R[10]
*75 R[9]
*76 R[8]
*77 R[7]
*78 R[6]
*79 R[5]
*80 R[4]
*81 R[19]
*82 R[18]
*83 R[17]
*84 R[16]
*85 R[15]
*86 R[14]
*87 R[13]
*88 R[12]
*89 R[27]
*90 R[26]
*91 R[25]
*92 R[24]
*93 R[23]
*94 R[22]
*95 R[21]
*96 R[20]
*97 rst
*98 clk
*99 R[33]
*100 R[32]
*101 R[31]
*102 R[30]
*103 R[29]
*104 R[28]
*105 test_SignificandMultiplication_Adder_final6_0/n329
*106 test_SignificandMultiplication_Adder_final6_0/U210
*107 test_SignificandMultiplication_Adder_final6_0/U96
*108 test_SignificandMultiplication_Adder_final6_0/U89
*109 test_SignificandMultiplication_Adder_final6_0/U293
*110 test_SignificandMultiplication_Adder_final6_0/n179
*111 test_SignificandMultiplication_Adder_final6_0/U33
*112 test_SignificandMultiplication_Adder_final6_0/U262
*113 test_SignificandMultiplication_Adder_final6_0/n327
*114 test_SignificandMultiplication_Adder_final6_0/U287
*115 test_SignificandMultiplication_Adder_final6_0/U305
*116 test_SignificandMultiplication_Adder_final6_0/n270
*117 test_SignificandMultiplication_Adder_final6_0/U202
*118 test_SignificandMultiplication_Adder_final6_0/U59
*119 test_SignificandMultiplication_Adder_final6_0/U322
*120 test_SignificandMultiplication_Adder_final6_0/n237
*121 test_SignificandMultiplication_Adder_final6_0/U26
*122 test_SignificandMultiplication_Adder_final6_0/U303
*123 test_SignificandMultiplication_Adder_final6_0/U266
*124 test_SignificandMultiplication_Adder_final6_0/U121
*125 test_SignificandMultiplication_Adder_final6_0/n182
*126 test_SignificandMultiplication_Adder_final6_0/U25
*127 test_SignificandMultiplication_Adder_final6_0/U24
*128 test_SignificandMultiplication_Adder_final6_0/U267
*129 test_SignificandMultiplication_Adder_final6_0/n176
*130 test_SignificandMultiplication_Adder_final6_0/U180
*131 test_SignificandMultiplication_Adder_final6_0/U35
*132 test_SignificandMultiplication_Adder_final6_0/U208
*133 test_SignificandMultiplication_Adder_final6_0/n183
*134 test_SignificandMultiplication_Adder_final6_0/U27
*135 test_SignificandMultiplication_Adder_final6_0/U268
*136 test_SignificandMultiplication_Adder_final6_0/U144
*137 test_SignificandMultiplication_DSP_bh6_ch0_0\[24\]
*138 test_SignificandMultiplication_Adder_final6_0/U100
*139 U348
*140 test_SignificandMultiplication_Adder_final6_0/U187
*141 test_SignificandMultiplication_Adder_final6_0/U191
*142 test_SignificandMultiplication_Adder_final6_0/U229
*143 test_SignificandMultiplication_DSP_bh6_ch1_0\[37\]
*144 test_SignificandMultiplication_Adder_final6_0/U128
*145 test_SignificandMultiplication_Adder_final6_0/U68
*146 test_SignificandMultiplication_Adder_final6_0/U66
*147 U1781
*148 test_SignificandMultiplication_DSP_bh6_ch0_0\[20\]
*149 U389
*150 test_SignificandMultiplication_Adder_final6_0/n264
*151 test_SignificandMultiplication_Adder_final6_0/U188
*152 test_SignificandMultiplication_Adder_final6_0/U79
*153 test_SignificandMultiplication_Adder_final6_0/U237
*154 test_SignificandMultiplication_Adder_final6_0/U318
*155 test_SignificandMultiplication_Adder_final6_0/n281
*156 test_SignificandMultiplication_Adder_final6_0/U200
*157 test_SignificandMultiplication_Adder_final6_0/U99
*158 test_SignificandMultiplication_Adder_final6_0/U328
*159 test_SignificandMultiplication_Adder_final6_0/U98
*160 test_SignificandMultiplication_Adder_final6_0/n143
*161 test_SignificandMultiplication_Adder_final6_0/U95
*162 test_SignificandMultiplication_Adder_final6_0/U232
*163 test_SignificandMultiplication_Adder_final6_0/n302
*164 test_SignificandMultiplication_Adder_final6_0/U228
*165 test_SignificandMultiplication_Adder_final6_0/U186
*166 test_SignificandMultiplication_Adder_final6_0/n244
*167 test_SignificandMultiplication_Adder_final6_0/U198
*168 test_SignificandMultiplication_Adder_final6_0/U101
*169 test_SignificandMultiplication_Adder_final6_0/U308
*170 test_SignificandMultiplication_Adder_final6_0/U289
*171 test_SignificandMultiplication_Adder_final6_0/n250
*172 test_SignificandMultiplication_Adder_final6_0/U32
*173 test_SignificandMultiplication_Adder_final6_0/U30
*174 test_SignificandMultiplication_Adder_final6_0/U310
*175 test_SignificandMultiplication_Adder_final6_0/n335
*176 test_SignificandMultiplication_Adder_final6_0/U159
*177 test_SignificandMultiplication_Adder_final6_0/n252
*178 test_SignificandMultiplication_Adder_final6_0/U102
*179 test_SignificandMultiplication_Adder_final6_0/U311
*180 test_SignificandMultiplication_Adder_final6_0/n285
*181 test_SignificandMultiplication_Adder_final6_0/U117
*182 test_SignificandMultiplication_Adder_final6_0/U7
*183 test_SignificandMultiplication_Adder_final6_0/U174
*184 test_SignificandMultiplication_Adder_final6_0/U330
*185 test_SignificandMultiplication_Adder_final6_0/n314
*186 test_SignificandMultiplication_Adder_final6_0/n328
*187 test_SignificandMultiplication_Adder_final6_0/U92
*188 test_SignificandMultiplication_Adder_final6_0/n305
*189 test_SignificandMultiplication_Adder_final6_0/n339
*190 test_SignificandMultiplication_Adder_final6_0/U185
*191 test_SignificandMultiplication_Adder_final6_0/U156
*192 test_SignificandMultiplication_Adder_final6_0/U258
*193 test_SignificandMultiplication_Adder_final6_0/n208
*194 test_SignificandMultiplication_Adder_final6_0/U46
*195 test_SignificandMultiplication_Adder_final6_0/U284
*196 test_SignificandMultiplication_Adder_final6_0/n165
*197 test_SignificandMultiplication_Adder_final6_0/U52
*198 test_SignificandMultiplication_Adder_final6_0/U253
*199 test_SignificandMultiplication_Adder_final6_0/n288
*200 test_SignificandMultiplication_Adder_final6_0/U181
*201 test_SignificandMultiplication_Adder_final6_0/U331
*202 test_SignificandMultiplication_Adder_final6_0/n341
*203 test_SignificandMultiplication_Adder_final6_0/U50
*204 test_SignificandMultiplication_Adder_final6_0/U227
*205 test_SignificandMultiplication_Adder_final6_0/U158
*206 test_SignificandMultiplication_Adder_final6_0/n310
*207 test_SignificandMultiplication_Adder_final6_0/U166
*208 test_SignificandMultiplication_Adder_final6_0/n177
*209 test_SignificandMultiplication_Adder_final6_0/n181
*210 test_SignificandMultiplication_Adder_final6_0/U39
*211 test_SignificandMultiplication_Adder_final6_0/U265
*212 test_SignificandMultiplication_Adder_final6_0/n13
*213 test_SignificandMultiplication_Adder_final6_0/U44
*214 test_SignificandMultiplication_Adder_final6_0/n312
*215 test_SignificandMultiplication_Adder_final6_0/U172
*216 test_SignificandMultiplication_Adder_final6_0/U155
*217 test_SignificandMultiplication_Adder_final6_0/n216
*218 test_SignificandMultiplication_Adder_final6_0/U263
*219 test_SignificandMultiplication_Adder_final6_0/U37
*220 test_SignificandMultiplication_Adder_final6_0/U291
*221 test_SignificandMultiplication_Adder_final6_0/n212
*222 test_SignificandMultiplication_Adder_final6_0/U307
*223 test_SignificandMultiplication_Adder_final6_0/n221
*224 test_SignificandMultiplication_Adder_final6_0/U38
*225 test_SignificandMultiplication_Adder_final6_0/U294
*226 test_SignificandMultiplication_Adder_final6_0/n282
*227 test_SignificandMultiplication_Adder_final6_0/U171
*228 test_SignificandMultiplication_Adder_final6_0/U63
*229 test_SignificandMultiplication_Adder_final6_0/U60
*230 test_SignificandMultiplication_Adder_final6_0/U104
*231 test_SignificandMultiplication_Adder_final6_0/U231
*232 test_SignificandMultiplication_Adder_final6_0/n30
*233 test_SignificandMultiplication_Adder_final6_0/U94
*234 test_SignificandMultiplication_Adder_final6_0/n303
*235 test_SignificandMultiplication_Adder_final6_0/U110
*236 test_SignificandMultiplication_Adder_final6_0/n142
*237 test_SignificandMultiplication_Adder_final6_0/U107
*238 test_SignificandMultiplication_Adder_final6_0/n307
*239 test_SignificandMultiplication_Adder_final6_0/U169
*240 test_SignificandMultiplication_Adder_final6_0/U43
*241 test_SignificandMultiplication_Adder_final6_0/n43
*242 test_SignificandMultiplication_Adder_final6_0/U1
*243 test_SignificandMultiplication_Adder_final6_0/U14
*244 test_sigProd\[38\]
*245 U881
*246 U786
*247 test_sigProd\[36\]
*248 U302
*249 U116
*250 test_SignificandMultiplication_Adder_final6_0/n78
*251 test_SignificandMultiplication_Adder_final6_0/U165
*252 test_SignificandMultiplication_Adder_final6_0/U173
*253 test_SignificandMultiplication_Adder_final6_0/n75
*254 test_SignificandMultiplication_Adder_final6_0/U168
*255 test_SignificandMultiplication_Adder_final6_0/n323
*256 test_SignificandMultiplication_Adder_final6_0/U160
*257 test_SignificandMultiplication_Adder_final6_0/U120
*258 test_SignificandMultiplication_Adder_final6_0/n298
*259 test_SignificandMultiplication_Adder_final6_0/U125
*260 test_SignificandMultiplication_Adder_final6_0/U72
*261 test_SignificandMultiplication_Adder_final6_0/U282
*262 test_SignificandMultiplication_Adder_final6_0/n23
*263 test_SignificandMultiplication_Adder_final6_0/U73
*264 test_SignificandMultiplication_Adder_final6_0/n10
*265 test_SignificandMultiplication_Adder_final6_0/U83
*266 test_SignificandMultiplication_Adder_final6_0/n11
*267 test_SignificandMultiplication_Adder_final6_0/n14
*268 test_SignificandMultiplication_Adder_final6_0/U111
*269 test_SignificandMultiplication_Adder_final6_0/U48
*270 test_SignificandMultiplication_Adder_final6_0/n15
*271 test_SignificandMultiplication_Adder_final6_0/U103
*272 test_SignificandMultiplication_Adder_final6_0/n332
*273 test_SignificandMultiplication_Adder_final6_0/U106
*274 test_SignificandMultiplication_DSP_bh6_ch1_0\[25\]
*275 U638
*276 test_SignificandMultiplication_Adder_final6_0/n148
*277 test_SignificandMultiplication_Adder_final6_0/U152
*278 test_SignificandMultiplication_Adder_final6_0/U61
*279 test_SignificandMultiplication_Adder_final6_0/U82
*280 test_SignificandMultiplication_Adder_final6_0/U236
*281 test_SignificandMultiplication_Adder_final6_0/n275
*282 test_SignificandMultiplication_Adder_final6_0/U325
*283 test_SignificandMultiplication_DSP_bh6_ch1_0\[32\]
*284 test_SignificandMultiplication_Adder_final6_0/U138
*285 test_SignificandMultiplication_Adder_final6_0/U88
*286 test_SignificandMultiplication_Adder_final6_0/U81
*287 test_SignificandMultiplication_Adder_final6_0/U80
*288 U1025
*289 test_SignificandMultiplication_DSP_bh6_ch0_0\[15\]
*290 U546
*291 test_SignificandMultiplication_Adder_final6_0/n338
*292 test_SignificandMultiplication_Adder_final6_0/U316
*293 test_SignificandMultiplication_Adder_final6_0/n17
*294 test_SignificandMultiplication_Adder_final6_0/U135
*295 test_SignificandMultiplication_Adder_final6_0/U87
*296 test_SignificandMultiplication_Adder_final6_0/U54
*297 test_SignificandMultiplication_Adder_final6_0/n321
*298 test_SignificandMultiplication_Adder_final6_0/n316
*299 test_SignificandMultiplication_Adder_final6_0/n16
*300 test_SignificandMultiplication_Adder_final6_0/U36
*301 test_SignificandMultiplication_Adder_final6_0/n160
*302 test_SignificandMultiplication_Adder_final6_0/U134
*303 test_SignificandMultiplication_Adder_final6_0/U62
*304 test_SignificandMultiplication_Adder_final6_0/U248
*305 test_SignificandMultiplication_Adder_final6_0/n331
*306 test_SignificandMultiplication_Adder_final6_0/U315
*307 test_SignificandMultiplication_Adder_final6_0/n333
*308 test_SignificandMultiplication_Adder_final6_0/U281
*309 test_SignificandMultiplication_Adder_final6_0/n159
*310 test_SignificandMultiplication_Adder_final6_0/U133
*311 test_SignificandMultiplication_Adder_final6_0/U65
*312 test_SignificandMultiplication_Adder_final6_0/U67
*313 test_SignificandMultiplication_Adder_final6_0/U249
*314 test_SignificandMultiplication_Adder_final6_0/U313
*315 test_SignificandMultiplication_Adder_final6_0/n259
*316 test_SignificandMultiplication_Adder_final6_0/n330
*317 test_SignificandMultiplication_Adder_final6_0/n261
*318 test_SignificandMultiplication_Adder_final6_0/n85
*319 test_SignificandMultiplication_Adder_final6_0/U132
*320 test_SignificandMultiplication_Adder_final6_0/U182
*321 test_SignificandMultiplication_Adder_final6_0/U131
*322 test_SignificandMultiplication_Adder_final6_0/n318
*323 test_SignificandMultiplication_Adder_final6_0/U22
*324 test_SignificandMultiplication_Adder_final6_0/n54
*325 test_SignificandMultiplication_Adder_final6_0/U130
*326 test_SignificandMultiplication_Adder_final6_0/U147
*327 test_SignificandMultiplication_Adder_final6_0/n197
*328 test_SignificandMultiplication_Adder_final6_0/U129
*329 test_SignificandMultiplication_Adder_final6_0/U77
*330 test_SignificandMultiplication_Adder_final6_0/U241
*331 test_SignificandMultiplication_Adder_final6_0/U278
*332 test_SignificandMultiplication_Adder_final6_0/n152
*333 test_SignificandMultiplication_Adder_final6_0/U76
*334 test_SignificandMultiplication_Adder_final6_0/U74
*335 test_SignificandMultiplication_Adder_final6_0/U242
*336 test_SignificandMultiplication_Adder_final6_0/n317
*337 test_SignificandMultiplication_Adder_final6_0/U28
*338 test_SignificandMultiplication_Adder_final6_0/n153
*339 test_SignificandMultiplication_Adder_final6_0/U78
*340 test_SignificandMultiplication_Adder_final6_0/U243
*341 test_SignificandMultiplication_DSP_bh6_ch0_0\[16\]
*342 test_SignificandMultiplication_Adder_final6_0/U70
*343 U2037
*344 test_SignificandMultiplication_DSP_bh6_ch1_0\[33\]
*345 U2369
*346 test_SignificandMultiplication_Adder_final6_0/n166
*347 test_SignificandMultiplication_Adder_final6_0/U122
*348 test_SignificandMultiplication_Adder_final6_0/U51
*349 test_SignificandMultiplication_Adder_final6_0/U254
*350 test_SignificandMultiplication_Adder_final6_0/n164
*351 test_SignificandMultiplication_Adder_final6_0/n336
*352 test_SignificandMultiplication_Adder_final6_0/U69
*353 test_SignificandMultiplication_Adder_final6_0/n167
*354 test_SignificandMultiplication_Adder_final6_0/U58
*355 test_SignificandMultiplication_Adder_final6_0/U255
*356 n2232
*357 test_SignificandMultiplication_Adder_final6_0/U5
*358 U2047
*359 test_SignificandMultiplication_Adder_final6_0/U13
*360 test_SignificandMultiplication_DSP_bh6_ch1_0\[18\]
*361 U1375
*362 test_SignificandMultiplication_DSP_bh6_ch0_0\[8\]
*363 U2006
*364 test_SignificandMultiplication_Adder_final6_0/n5
*365 test_SignificandMultiplication_Adder_final6_0/U105
*366 test_SignificandMultiplication_Adder_final6_0/U41
*367 test_SignificandMultiplication_Adder_final6_0/U12
*368 test_SignificandMultiplication_Adder_final6_0/U16
*369 test_SignificandMultiplication_Adder_final6_0/n320
*370 test_SignificandMultiplication_Adder_final6_0/U40
*371 test_SignificandMultiplication_DSP_bh6_ch1_0\[29\]
*372 test_SignificandMultiplication_Adder_final6_0/U97
*373 U1831
*374 test_SignificandMultiplication_DSP_bh6_ch0_0\[10\]
*375 U2002
*376 test_SignificandMultiplication_DSP_bh6_ch1_0\[27\]
*377 U2216
*378 test_SignificandMultiplication_DSP_bh6_ch0_0\[9\]
*379 test_SignificandMultiplication_Adder_final6_0/U31
*380 U2018
*381 test_SignificandMultiplication_DSP_bh6_ch1_0\[26\]
*382 U767
*383 test_SignificandMultiplication_DSP_bh6_ch0_0\[12\]
*384 U2195
*385 test_SignificandMultiplication_Adder_final6_0/n172
*386 test_SignificandMultiplication_Adder_final6_0/n315
*387 test_SignificandMultiplication_Adder_final6_0/n12
*388 test_SignificandMultiplication_DSP_bh6_ch1_0\[36\]
*389 U1194
*390 test_SignificandMultiplication_DSP_bh6_ch0_0\[19\]
*391 U375
*392 test_SignificandMultiplication_DSP_bh6_ch1_0\[34\]
*393 test_SignificandMultiplication_Adder_final6_0/U75
*394 U1804
*395 test_SignificandMultiplication_DSP_bh6_ch0_0\[17\]
*396 U1994
*397 test_SignificandMultiplication_Adder_final6_0/n19
*398 test_SignificandMultiplication_Adder_final6_0/n162
*399 test_SignificandMultiplication_Adder_final6_0/U252
*400 test_SignificandMultiplication_Adder_final6_0/n157
*401 test_SignificandMultiplication_Adder_final6_0/U246
*402 test_SignificandMultiplication_Adder_final6_0/n267
*403 test_SignificandMultiplication_Adder_final6_0/U321
*404 test_SignificandMultiplication_Adder_final6_0/n201
*405 test_SignificandMultiplication_DSP_bh6_ch0_0\[22\]
*406 test_SignificandMultiplication_Adder_final6_0/U64
*407 U2040
*408 test_SignificandMultiplication_Adder_final6_0/n141
*409 test_SignificandMultiplication_DSP_bh6_ch1_0\[39\]
*410 U1763
*411 test_SignificandMultiplication_Adder_final6_0/n300
*412 test_SignificandMultiplication_Adder_final6_0/U34
*413 test_SignificandMultiplication_Adder_final6_0/n311
*414 test_SignificandMultiplication_Adder_final6_0/U86
*415 test_SignificandMultiplication_Adder_final6_0/n301
*416 test_SignificandMultiplication_Adder_final6_0/U189
*417 test_SignificandMultiplication_Adder_final6_0/n273
*418 test_SignificandMultiplication_Adder_final6_0/n47
*419 test_SignificandMultiplication_Adder_final6_0/U57
*420 test_SignificandMultiplication_Adder_final6_0/U123
*421 test_SignificandMultiplication_Adder_final6_0/U215
*422 test_SignificandMultiplication_Adder_final6_0/n83
*423 test_SignificandMultiplication_Adder_final6_0/U178
*424 test_SignificandMultiplication_Adder_final6_0/U142
*425 test_SignificandMultiplication_Adder_final6_0/n46
*426 test_SignificandMultiplication_Adder_final6_0/U126
*427 test_SignificandMultiplication_Adder_final6_0/n89
*428 test_SignificandMultiplication_Adder_final6_0/U56
*429 test_SignificandMultiplication_Adder_final6_0/U93
*430 test_SignificandMultiplication_Adder_final6_0/U184
*431 test_SignificandMultiplication_Adder_final6_0/n39
*432 test_SignificandMultiplication_Adder_final6_0/U21
*433 test_SignificandMultiplication_Adder_final6_0/n325
*434 test_SignificandMultiplication_Adder_final6_0/U29
*435 test_SignificandMultiplication_Adder_final6_0/n334
*436 test_SignificandMultiplication_Adder_final6_0/U55
*437 test_SignificandMultiplication_Adder_final6_0/U197
*438 test_SignificandMultiplication_Adder_final6_0/n38
*439 test_SignificandMultiplication_Adder_final6_0/n63
*440 test_SignificandMultiplication_Adder_final6_0/U49
*441 test_SignificandMultiplication_Adder_final6_0/n110
*442 test_SignificandMultiplication_Adder_final6_0/U2
*443 test_SignificandMultiplication_Adder_final6_0/U224
*444 test_SignificandMultiplication_Adder_final6_0/U150
*445 test_SignificandMultiplication_Adder_final6_0/U179
*446 test_SignificandMultiplication_Adder_final6_0/U136
*447 test_SignificandMultiplication_Adder_final6_0/U143
*448 test_SignificandMultiplication_Adder_final6_0/n42
*449 test_SignificandMultiplication_Adder_final6_0/U221
*450 test_SignificandMultiplication_Adder_final6_0/U297
*451 test_SignificandMultiplication_DSP_bh6_ch1_0\[19\]
*452 test_SignificandMultiplication_Adder_final6_0/U42
*453 test_SignificandMultiplication_Adder_final6_0/U9
*454 U185
*455 test_SignificandMultiplication_DSP_bh6_ch0_0\[2\]
*456 U2028
*457 test_SignificandMultiplication_Adder_final6_0/n297
*458 test_SignificandMultiplication_Adder_final6_0/U11
*459 test_SignificandMultiplication_Adder_final6_0/U273
*460 test_SignificandMultiplication_Adder_final6_0/n187
*461 test_SignificandMultiplication_Adder_final6_0/U17
*462 test_SignificandMultiplication_Adder_final6_0/U270
*463 test_SignificandMultiplication_Adder_final6_0/U18
*464 test_SignificandMultiplication_Adder_final6_0/n232
*465 test_SignificandMultiplication_Adder_final6_0/U19
*466 test_SignificandMultiplication_Adder_final6_0/U300
*467 test_SignificandMultiplication_Adder_final6_0/n7
*468 test_SignificandMultiplication_Adder_final6_0/n319
*469 test_SignificandMultiplication_Adder_final6_0/n188
*470 test_SignificandMultiplication_Adder_final6_0/U271
*471 test_SignificandMultiplication_Adder_final6_0/n299
*472 test_SignificandMultiplication_Adder_final6_0/U309
*473 test_SignificandMultiplication_Adder_final6_0/U292
*474 test_SignificandMultiplication_Adder_final6_0/U264
*475 test_SignificandMultiplication_Adder_final6_0/n37
*476 test_SignificandMultiplication_Adder_final6_0/U109
*477 test_SignificandMultiplication_Adder_final6_0/n306
*478 test_SignificandMultiplication_Adder_final6_0/n36
*479 test_SignificandMultiplication_Adder_final6_0/n91
*480 test_SignificandMultiplication_Adder_final6_0/n146
*481 test_SignificandMultiplication_Adder_final6_0/U235
*482 test_SignificandMultiplication_Adder_final6_0/n25
*483 test_SignificandMultiplication_Adder_final6_0/n150
*484 test_SignificandMultiplication_Adder_final6_0/U240
*485 test_SignificandMultiplication_Adder_final6_0/n104
*486 test_SignificandMultiplication_Adder_final6_0/U20
*487 test_SignificandMultiplication_Adder_final6_0/U15
*488 test_SignificandMultiplication_Adder_final6_0/U148
*489 test_SignificandMultiplication_Adder_final6_0/n340
*490 test_SignificandMultiplication_Adder_final6_0/U8
*491 test_SignificandMultiplication_Adder_final6_0/U218
*492 test_SignificandMultiplication_Adder_final6_0/n105
*493 test_SignificandMultiplication_Adder_final6_0/n120
*494 test_SignificandMultiplication_Adder_final6_0/U213
*495 test_SignificandMultiplication_Adder_final6_0/n109
*496 test_SignificandMultiplication_Adder_final6_0/U204
*497 test_SignificandMultiplication_Adder_final6_0/n113
*498 test_SignificandMultiplication_Adder_final6_0/n107
*499 test_SignificandMultiplication_Adder_final6_0/U205
*500 test_SignificandMultiplication_Adder_final6_0/n118
*501 test_SignificandMultiplication_Adder_final6_0/U214
*502 test_SignificandMultiplication_Adder_final6_0/n101
*503 test_SignificandMultiplication_Adder_final6_0/U196
*504 test_SignificandMultiplication_Adder_final6_0/U170
*505 test_sigProd\[44\]
*506 U1511
*507 U657
*508 test_SignificandMultiplication_Adder_final6_0/n296
*509 test_SignificandMultiplication_Adder_final6_0/U219
*510 test_SignificandMultiplication_Adder_final6_0/U337
*511 test_SignificandMultiplication_Adder_final6_0/n128
*512 test_SignificandMultiplication_Adder_final6_0/U222
*513 test_SignificandMultiplication_Adder_final6_0/n295
*514 test_SignificandMultiplication_Adder_final6_0/U336
*515 test_sigProd\[45\]
*516 U1563
*517 test_SignificandMultiplication_Adder_final6_0/n129
*518 test_SignificandMultiplication_Adder_final6_0/U223
*519 test_SignificandMultiplication_Adder_final6_0/U149
*520 test_SignificandMultiplication_Adder_final6_0/n286
*521 test_SignificandMultiplication_Adder_final6_0/U176
*522 test_SignificandMultiplication_Adder_final6_0/U177
*523 test_SignificandMultiplication_Adder_final6_0/U114
*524 test_SignificandMultiplication_Adder_final6_0/n287
*525 test_SignificandMultiplication_Adder_final6_0/n41
*526 test_SignificandMultiplication_Adder_final6_0/n284
*527 test_SignificandMultiplication_Adder_final6_0/U329
*528 test_SignificandMultiplication_Adder_final6_0/U192
*529 test_SignificandMultiplication_Adder_final6_0/n40
*530 test_SignificandMultiplication_Adder_final6_0/n114
*531 test_SignificandMultiplication_Adder_final6_0/U212
*532 test_SignificandMultiplication_Adder_final6_0/U203
*533 test_SignificandMultiplication_Adder_final6_0/n116
*534 test_SignificandMultiplication_Adder_final6_0/n103
*535 test_SignificandMultiplication_Adder_final6_0/n102
*536 test_SignificandMultiplication_Adder_final6_0/U164
*537 test_SignificandMultiplication_Adder_final6_0/U225
*538 test_SignificandMultiplication_Adder_final6_0/U167
*539 test_SignificandMultiplication_Adder_final6_0/n290
*540 test_SignificandMultiplication_Adder_final6_0/U113
*541 test_SignificandMultiplication_DSP_bh6_ch0_0\[36\]
*542 U332
*543 test_SignificandMultiplication_Adder_final6_0/n276
*544 test_SignificandMultiplication_Adder_final6_0/U319
*545 test_SignificandMultiplication_Adder_final6_0/U238
*546 test_SignificandMultiplication_Adder_final6_0/n28
*547 test_SignificandMultiplication_Adder_final6_0/n29
*548 test_SignificandMultiplication_DSP_bh6_ch0_0\[38\]
*549 U1943
*550 test_SignificandMultiplication_DSP_bh6_ch0_0\[39\]
*551 U1937
*552 test_SignificandMultiplication_DSP_bh6_ch0_0\[29\]
*553 U310
*554 test_SignificandMultiplication_DSP_bh6_ch0_0\[28\]
*555 U1351
*556 test_SignificandMultiplication_DSP_bh6_ch0_0\[31\]
*557 U2056
*558 test_SignificandMultiplication_DSP_bh6_ch0_0\[30\]
*559 U1504
*560 test_SignificandMultiplication_Adder_final6_0/n258
*561 test_SignificandMultiplication_Adder_final6_0/U250
*562 test_SignificandMultiplication_Adder_final6_0/U314
*563 test_SignificandMultiplication_Adder_final6_0/n22
*564 test_SignificandMultiplication_Adder_final6_0/n21
*565 test_SignificandMultiplication_Adder_final6_0/U71
*566 test_SignificandMultiplication_Adder_final6_0/n211
*567 test_SignificandMultiplication_Adder_final6_0/U257
*568 test_SignificandMultiplication_Adder_final6_0/U285
*569 test_SignificandMultiplication_Adder_final6_0/n249
*570 test_SignificandMultiplication_Adder_final6_0/U306
*571 test_SignificandMultiplication_Adder_final6_0/n254
*572 test_SignificandMultiplication_Adder_final6_0/U312
*573 test_SignificandMultiplication_Adder_final6_0/n247
*574 test_SignificandMultiplication_Adder_final6_0/n215
*575 test_SignificandMultiplication_Adder_final6_0/U290
*576 test_SignificandMultiplication_Adder_final6_0/n214
*577 test_sigProd\[16\]
*578 U1526
*579 test_SignificandMultiplication_Adder_final6_0/n223
*580 test_SignificandMultiplication_Adder_final6_0/U295
*581 test_SignificandMultiplication_Adder_final6_0/n222
*582 test_sigProd\[15\]
*583 test_SignificandMultiplication_Adder_final6_0/n218
*584 test_SignificandMultiplication_Adder_final6_0/n217
*585 test_SignificandMultiplication_Adder_final6_0/n205
*586 test_SignificandMultiplication_Adder_final6_0/n246
*587 test_SignificandMultiplication_Adder_final6_0/n245
*588 test_SignificandMultiplication_Adder_final6_0/U288
*589 test_SignificandMultiplication_Adder_final6_0/n209
*590 test_SignificandMultiplication_Adder_final6_0/U53
*591 test_SignificandMultiplication_Adder_final6_0/n231
*592 test_SignificandMultiplication_Adder_final6_0/U299
*593 test_SignificandMultiplication_Adder_final6_0/U272
*594 test_SignificandMultiplication_Adder_final6_0/n235
*595 test_SignificandMultiplication_Adder_final6_0/U301
*596 test_SignificandMultiplication_Adder_final6_0/n229
*597 test_SignificandMultiplication_Adder_final6_0/n192
*598 test_SignificandMultiplication_Adder_final6_0/U274
*599 test_SignificandMultiplication_Adder_final6_0/U234
*600 test_SignificandMultiplication_Adder_final6_0/n3
*601 test_SignificandMultiplication_Adder_final6_0/U10
*602 test_SignificandMultiplication_Adder_final6_0/n190
*603 test_SignificandMultiplication_DSP_bh6_ch0_0\[4\]
*604 U2021
*605 test_SignificandMultiplication_DSP_bh6_ch1_0\[21\]
*606 U2192
*607 test_SignificandMultiplication_DSP_bh6_ch0_0\[3\]
*608 U2014
*609 test_SignificandMultiplication_Adder_final6_0/U3
*610 test_SignificandMultiplication_DSP_bh6_ch1_0\[20\]
*611 U2155
*612 test_SignificandMultiplication_Adder_final6_0/n57
*613 test_sigProd\[39\]
*614 U863
*615 U1417
*616 test_SignificandMultiplication_Adder_final6_0/n88
*617 test_sigProd\[40\]
*618 U791
*619 U1415
*620 test_SignificandMultiplication_Adder_final6_0/n134
*621 test_sigProd\[43\]
*622 U879
*623 U782
*624 test_SignificandMultiplication_Adder_final6_0/n52
*625 test_SignificandMultiplication_Adder_final6_0/U141
*626 test_SignificandMultiplication_Adder_final6_0/n51
*627 test_SignificandMultiplication_Adder_final6_0/U140
*628 test_SignificandMultiplication_Adder_final6_0/U162
*629 test_sigProd\[41\]
*630 U880
*631 U1441
*632 test_SignificandMultiplication_Adder_final6_0/n117
*633 test_sigProd\[47\]
*634 U45
*635 U305
*636 U2113
*637 test_SignificandMultiplication_Adder_final6_0/n53
*638 test_SignificandMultiplication_Adder_final6_0/n131
*639 test_SignificandMultiplication_Adder_final6_0/n59
*640 test_SignificandMultiplication_Adder_final6_0/n62
*641 test_SignificandMultiplication_Adder_final6_0/U154
*642 test_SignificandMultiplication_Adder_final6_0/n84
*643 test_SignificandMultiplication_Adder_final6_0/n145
*644 test_SignificandMultiplication_Adder_final6_0/U233
*645 test_SignificandMultiplication_Adder_final6_0/n144
*646 test_sigProd\[30\]
*647 U132
*648 U1505
*649 test_SignificandMultiplication_Adder_final6_0/n74
*650 test_SignificandMultiplication_Adder_final6_0/n81
*651 test_sigProd\[35\]
*652 U1352
*653 U811
*654 test_SignificandMultiplication_Adder_final6_0/n69
*655 test_SignificandMultiplication_Adder_final6_0/U161
*656 test_SignificandMultiplication_Adder_final6_0/n66
*657 test_SignificandMultiplication_Adder_final6_0/U115
*658 test_sigProd\[34\]
*659 U1354
*660 U1357
*661 test_SignificandMultiplication_Adder_final6_0/n140
*662 test_SignificandMultiplication_Adder_final6_0/U230
*663 test_SignificandMultiplication_Adder_final6_0/n139
*664 test_sigProd\[31\]
*665 U1559
*666 U210
*667 test_SignificandMultiplication_Adder_final6_0/n283
*668 test_sigProd\[29\]
*669 U188
*670 U212
*671 test_SignificandMultiplication_Adder_final6_0/n136
*672 test_SignificandMultiplication_Adder_final6_0/U226
*673 test_sigProd\[33\]
*674 U2105
*675 test_SignificandMultiplication_Adder_final6_0/n135
*676 test_SignificandMultiplication_Adder_final6_0/U157
*677 test_SignificandMultiplication_Adder_final6_0/n73
*678 test_SignificandMultiplication_Adder_final6_0/U163
*679 test_SignificandMultiplication_Adder_final6_0/n137
*680 test_SignificandMultiplication_Adder_final6_0/n156
*681 test_SignificandMultiplication_Adder_final6_0/U244
*682 test_SignificandMultiplication_Adder_final6_0/n155
*683 test_sigProd\[25\]
*684 U1483
*685 U174